units(length='cm', time='s', quantity='mol', act_energy='kcal/mol')

ideal_gas(name='gas',
          elements="H D T C Ci O Oi N Ne Ar He Si S F Cl Br I X",
          species="""He          Ne          propane(1)  H(2)
                     H2(6)       CH3(14)     CH4(15)     C2H6(36)
                     C2H5(37)    C2H4(38)    C2H3(41)    C3H3(66)
                     NC3H7(92)   IC3H7(93)   C3H5-A(94)  C3H6(95)
                     C3H5(101)   C4H5(106)   C4H5(107)   C3H4(167)
                     C3H4(169)   PC4H9(183)  SC4H9(184)  C4H8(189)
                     C4H8(190)   C4H7(191)   C4H7(192)   C4H7(193)
                     C4H6(195)   IC4H9(273)  C6H10(342)  C6H9(343)
                     C5H9(399)   C5H9(400)   C5H8(403)   C5H7(404)
                     C5H9(405)   C5H9(407)   C5H11(421)  C5H11(422)
                     C5H9(428)   C5H11(537)  C5H11(540)  C5H10(541)
                     C4H6(770)   C4H5(774)   C4H7(777)   C4H5(781)
                     C4H5(793)   C3H4(801)""",
          reactions='all',
          initial_state=state(temperature=300.0, pressure=OneAtm))

#-------------------------------------------------------------------------------
# Element data
#-------------------------------------------------------------------------------

element(symbol='Ci', atomic_mass=13.003)
element(symbol='D', atomic_mass=2.014)
element(symbol='Oi', atomic_mass=18.0)
element(symbol='T', atomic_mass=3.016)
element(symbol='X', atomic_mass=195.083)
#-------------------------------------------------------------------------------
# Species data
#-------------------------------------------------------------------------------

species(name='He',
        atoms='He:1',
        thermo=(NASA([100.00, 3459.60],
                     [ 2.50000000E+00,  9.24384602E-15, -1.36779837E-17,
                       6.66184769E-21, -1.00106912E-24, -7.45000000E+02,
                       9.14221530E-01]),
                NASA([3459.60, 5000.00],
                     [ 2.49999999E+00,  9.20455546E-12, -3.58608293E-15,
                       6.15198922E-19, -3.92041801E-23, -7.44999993E+02,
                       9.14221584E-01])))

species(name='Ne',
        atoms='Ne:1',
        thermo=(NASA([200.00, 1000.00],
                     [ 2.50000000E+00,  0.00000000E+00,  0.00000000E+00,
                       0.00000000E+00,  0.00000000E+00, -7.45375000E+02,
                       3.35532000E+00]),
                NASA([1000.00, 6000.00],
                     [ 2.50000000E+00,  0.00000000E+00,  0.00000000E+00,
                       0.00000000E+00,  0.00000000E+00, -7.45375000E+02,
                       3.35532000E+00])))

species(name='propane(1)',
        atoms='C:3 H:8',
        thermo=(NASA([100.00, 990.00],
                     [ 3.06334221E+00,  1.29216901E-02,  3.47024444E-05,
                      -4.70935111E-08,  1.71379367E-11, -1.43905780E+04,
                       1.07836287E+01]),
                NASA([990.00, 5000.00],
                     [ 5.60447685E+00,  2.19527483E-02, -8.22073096E-06,
                       1.50102216E-09, -1.05633884E-13, -1.58394359E+04,
                      -6.22666319E+00])))

species(name='H(2)',
        atoms='H:1',
        thermo=(NASA([100.00, 3459.60],
                     [ 2.50000000E+00,  9.24384602E-15, -1.36779837E-17,
                       6.66184769E-21, -1.00106912E-24,  2.54727081E+04,
                      -4.59566246E-01]),
                NASA([3459.60, 5000.00],
                     [ 2.49999999E+00,  9.20455546E-12, -3.58608293E-15,
                       6.15198922E-19, -3.92041801E-23,  2.54727081E+04,
                      -4.59566192E-01])))

species(name='H2(6)',
        atoms='H:2',
        thermo=(NASA([100.00, 1962.85],
                     [ 3.42253738E+00,  2.86649654E-04, -4.14670547E-07,
                       4.27547869E-10, -9.38118580E-14, -1.02978490E+03,
                      -3.86364742E+00]),
                NASA([1962.85, 5000.00],
                     [ 2.74218715E+00,  5.79540044E-04,  1.97202501E-07,
                      -6.41094027E-11,  4.96002772E-15, -5.52037536E+02,
                       4.14099992E-01])))

species(name='CH3(14)',
        atoms='C:1 H:3',
        thermo=(NASA([200.00, 1000.00],
                     [ 3.65718000E+00,  2.12660000E-03,  5.45839000E-06,
                      -6.61810000E-09,  2.46571000E-12,  1.64227000E+04,
                       1.67354000E+00]),
                NASA([1000.00, 6000.00],
                     [ 2.97812000E+00,  5.79785000E-03, -1.97558000E-06,
                       3.07298000E-10, -1.79174000E-14,  1.65095000E+04,
                       4.72248000E+00])))

species(name='CH4(15)',
        atoms='C:1 H:4',
        thermo=(NASA([200.00, 1000.00],
                     [ 5.14826000E+00, -1.37002000E-02,  4.93749000E-05,
                      -4.91952000E-08,  1.70097000E-11, -1.02453000E+04,
                      -4.63323000E+00]),
                NASA([1000.00, 6000.00],
                     [ 1.91179000E+00,  9.60268000E-03, -3.38388000E-06,
                       5.38797000E-10, -3.19307000E-14, -1.00992000E+04,
                       8.48242000E+00])))

species(name='C2H6(36)',
        atoms='C:2 H:6',
        thermo=(NASA([200.00, 1000.00],
                     [ 4.29143000E+00, -5.50155000E-03,  5.99438000E-05,
                      -7.08466000E-08,  2.68686000E-11, -1.15222000E+04,
                       2.66679000E+00]),
                NASA([1000.00, 6000.00],
                     [ 4.04666000E+00,  1.53539000E-02, -5.47039000E-06,
                       8.77827000E-10, -5.23168000E-14, -1.24473000E+04,
                      -9.68698000E-01])))

species(name='C2H5(37)',
        atoms='C:2 H:5',
        thermo=(NASA([200.00, 1000.00],
                     [ 4.24186000E+00, -3.56905000E-03,  4.82667000E-05,
                      -5.85401000E-08,  2.25805000E-11,  1.29690000E+04,
                       4.44704000E+00]),
                NASA([1000.00, 6000.00],
                     [ 4.32196000E+00,  1.23931000E-02, -4.39681000E-06,
                       7.03520000E-10, -4.18435000E-14,  1.21759000E+04,
                       1.71104000E-01])))

species(name='C2H4(38)',
        atoms='C:2 H:4',
        thermo=(NASA([200.00, 1000.00],
                     [ 3.95920000E+00, -7.57051000E-03,  5.70990000E-05,
                      -6.91588000E-08,  2.69884000E-11,  5.08978000E+03,
                       4.09730000E+00]),
                NASA([1000.00, 6000.00],
                     [ 3.99183000E+00,  1.04834000E-02, -3.71721000E-06,
                       5.94628000E-10, -3.53630000E-14,  4.26866000E+03,
                      -2.69082000E-01])))

species(name='C2H3(41)',
        atoms='C:2 H:3',
        thermo=(NASA([200.00, 1000.00],
                     [ 3.36378000E+00,  2.65766000E-04,  2.79621000E-05,
                      -3.72987000E-08,  1.51590000E-11,  3.44750000E+04,
                       7.91510000E+00]),
                NASA([1000.00, 6000.00],
                     [ 4.15027000E+00,  7.54021000E-03, -2.62998000E-06,
                       4.15974000E-10, -2.45408000E-14,  3.38566000E+04,
                       1.72812000E+00])))

species(name='C3H3(66)',
        atoms='C:3 H:3',
        thermo=(NASA([100.00, 949.37],
                     [ 3.09018101E+00,  1.73589030E-02, -8.30793822E-06,
                      -2.47826278E-09,  2.58697996E-12,  4.07558458E+04,
                       8.11429014E+00]),
                NASA([949.37, 5000.00],
                     [ 6.99887426E+00,  7.24415855E-03, -2.36571400E-06,
                       3.98590338E-10, -2.69782796E-14,  3.97273500E+04,
                      -1.20478473E+01])))

species(name='NC3H7(92)',
        atoms='C:3 H:7',
        thermo=(NASA([100.00, 984.47],
                     [ 3.02814653E+00,  1.47024406E-02,  2.40505970E-05,
                      -3.66733340E-08,  1.38609211E-11,  1.05120550E+04,
                       1.24699036E+01]),
                NASA([984.47, 5000.00],
                     [ 6.16546668E+00,  1.84494026E-02, -6.79026098E-06,
                       1.23048412E-09, -8.63859742E-14,  9.09504645E+03,
                      -6.67624892E+00])))

species(name='IC3H7(93)',
        atoms='C:3 H:7',
        thermo=(NASA([100.00, 1029.98],
                     [ 3.23519276E+00,  1.11015187E-02,  2.80216733E-05,
                      -3.59462428E-08,  1.23658831E-11,  9.05375524E+03,
                       1.19813325E+01]),
                NASA([1029.98, 5000.00],
                     [ 4.36579577E+00,  2.14399965E-02, -8.48561277E-06,
                       1.56802294E-09, -1.09813526E-13,  8.03957882E+03,
                       2.70073501E+00])))

species(name='C3H5-A(94)',
        atoms='C:3 H:5',
        thermo=(NASA([100.00, 942.19],
                     [ 3.29609624E+00,  5.79284528E-03,  4.33897874E-05,
                      -5.99859098E-08,  2.33800755E-11,  1.89082168E+04,
                       9.02011836E+00]),
                NASA([942.19, 5000.00],
                     [ 8.06878965E+00,  1.01833813E-02, -2.84778394E-06,
                       5.00841208E-10, -3.79595947E-14,  1.69146178E+04,
                      -1.95280532E+01])))

species(name='C3H6(95)',
        atoms='C:3 H:6',
        thermo=(NASA([100.00, 983.76],
                     [ 3.31910980E+00,  8.17972202E-03,  3.34731267E-05,
                      -4.36187241E-08,  1.58210564E-11,  7.49325808E+02,
                       9.54029058E+00]),
                NASA([983.76, 5000.00],
                     [ 5.36759464E+00,  1.70742287E-02, -6.35103391E-06,
                       1.16618527E-09, -8.27611953E-14, -4.87156277E+02,
                      -4.54491672E+00])))

species(name='C3H5(101)',
        atoms='C:3 H:5',
        thermo=(NASA([100.00, 1030.45],
                     [ 3.26239517E+00,  1.20170913E-02,  1.39877053E-05,
                      -2.15736134E-08,  7.78288692E-12,  2.88534511E+04,
                       1.03011614E+01]),
                NASA([1030.45, 5000.00],
                     [ 5.02497574E+00,  1.54865835E-02, -6.07289003E-06,
                       1.11597342E-09, -7.79099152E-14,  2.79427502E+04,
                      -9.11506772E-01])))

species(name='C4H5(106)',
        atoms='C:4 H:5',
        thermo=(NASA([100.00, 937.71],
                     [ 2.64260653E+00,  1.63330590E-02,  3.86248553E-05,
                      -6.71409059E-08,  2.83617525E-11,  4.17296342E+04,
                       1.32818371E+01]),
                NASA([937.71, 5000.00],
                     [ 1.29703098E+01,  6.69154820E-03, -1.00086834E-06,
                       1.67640876E-10, -1.71469293E-14,  3.82797515E+04,
                      -4.39466489E+01])))

species(name='C4H5(107)',
        atoms='C:4 H:5',
        thermo=(NASA([100.00, 966.65],
                     [ 2.67738268E+00,  2.17330323E-02,  1.03879533E-05,
                      -2.87133964E-08,  1.25385118E-11,  3.65470525E+04,
                       1.30515531E+01]),
                NASA([966.65, 5000.00],
                     [ 8.97804218E+00,  1.35587905E-02, -4.70094516E-06,
                       8.47377802E-10, -6.05080373E-14,  3.44927511E+04,
                      -2.14570124E+01])))

species(name='C3H4(167)',
        atoms='C:3 H:4',
        thermo=(NASA([100.00, 949.71],
                     [ 3.37446019E+00,  7.04633022E-03,  2.78301282E-05,
                      -3.99438003E-08,  1.55726113E-11,  2.11885612E+04,
                       7.62051577E+00]),
                NASA([949.71, 5000.00],
                     [ 6.79959650E+00,  9.59972675E-03, -3.02064679E-06,
                       5.37818672E-10, -3.92598763E-14,  1.97722567E+04,
                      -1.27584333E+01])))

species(name='C3H4(169)',
        atoms='C:3 H:4',
        thermo=(NASA([100.00, 969.98],
                     [ 3.30523663E+00,  1.09264397E-02,  1.31989593E-05,
                      -2.25164841E-08,  8.87423351E-12,  2.07382228E+04,
                       7.19161906E+00]),
                NASA([969.98, 5000.00],
                     [ 5.80053880E+00,  1.13536024E-02, -4.03491818E-06,
                       7.19065448E-10, -5.02186423E-14,  1.97499659E+04,
                      -7.36961408E+00])))

species(name='PC4H9(183)',
        atoms='C:4 H:9',
        thermo=(NASA([100.00, 1050.57],
                     [ 2.25388176E+00,  3.16763420E-02,  2.89994012E-06,
                      -1.98048776E-08,  8.20502914E-12,  7.65264291E+03,
                       1.72724556E+01]),
                NASA([1050.57, 5000.00],
                     [ 7.59590879E+00,  2.60842132E-02, -1.01718529E-05,
                       1.85188929E-09, -1.28169343E-13,  5.71637126E+03,
                      -1.26365783E+01])))

species(name='SC4H9(184)',
        atoms='C:4 H:9',
        thermo=(NASA([100.00, 1083.85],
                     [ 2.48182442E+00,  2.70986178E-02,  1.03887029E-05,
                      -2.36649958E-08,  8.65276606E-12,  6.36961853E+03,
                       1.72942941E+01]),
                NASA([1083.85, 5000.00],
                     [ 6.12697741E+00,  2.82086471E-02, -1.13016986E-05,
                       2.07331318E-09, -1.43451097E-13,  4.72410503E+03,
                      -4.53088477E+00])))

species(name='C4H8(189)',
        atoms='C:4 H:8',
        thermo=(NASA([100.00, 1007.28],
                     [ 2.58773806E+00,  2.32776896E-02,  1.93416140E-05,
                      -3.55501273E-08,  1.36908114E-11, -1.91872964E+03,
                       1.45750296E+01]),
                NASA([1007.28, 5000.00],
                     [ 7.20513369E+00,  2.36362211E-02, -9.03153724E-06,
                       1.65393537E-09, -1.16019981E-13, -3.79732331E+03,
                      -1.24424117E+01])))

species(name='C4H8(190)',
        atoms='C:4 H:8',
        thermo=(NASA([100.00, 1157.78],
                     [ 2.51999658E+00,  2.76811313E-02,  9.44262292E-07,
                      -1.25014708E-08,  4.67165954E-12, -3.34374826E+03,
                       1.30195140E+01]),
                NASA([1157.78, 5000.00],
                     [ 6.04215522E+00,  2.60073988E-02, -1.04844281E-05,
                       1.90883001E-09, -1.30602190E-13, -4.86271905E+03,
                      -7.52657134E+00])))

species(name='C4H7(191)',
        atoms='C:4 H:7',
        thermo=(NASA([100.00, 995.01],
                     [ 2.68515490E+00,  2.07743488E-02,  2.19962159E-05,
                      -3.85576131E-08,  1.49724888E-11,  1.47127817E+04,
                       1.40723284E+01]),
                NASA([995.01, 5000.00],
                     [ 7.60267025E+00,  2.07982702E-02, -7.87783087E-06,
                       1.45014710E-09, -1.02663929E-13,  1.27544117E+04,
                      -1.45506942E+01])))

species(name='C4H7(192)',
        atoms='C:4 H:7',
        thermo=(NASA([100.00, 1051.01],
                     [ 2.48599921E+00,  2.77404163E-02, -7.51306911E-07,
                      -1.39967688E-08,  6.14172518E-12,  2.31155601E+04,
                       1.56915308E+01]),
                NASA([1051.01, 5000.00],
                     [ 7.36567536E+00,  2.10618080E-02, -8.19306437E-06,
                       1.49012991E-09, -1.03097424E-13,  2.14329960E+04,
                      -1.12177023E+01])))

species(name='C4H7(193)',
        atoms='C:4 H:7',
        thermo=(NASA([100.00, 1012.54],
                     [ 2.52156530E+00,  2.59936981E-02,  6.08948354E-06,
                      -2.23093481E-08,  9.36536820E-12,  2.79100805E+04,
                       1.52845337E+01]),
                NASA([1012.54, 5000.00],
                     [ 7.74085821E+00,  2.03540568E-02, -7.74601775E-06,
                       1.41033878E-09, -9.84404336E-14,  2.60852819E+04,
                      -1.37522827E+01])))

species(name='C4H6(195)',
        atoms='C:4 H:6',
        thermo=(NASA([100.00, 946.05],
                     [ 2.80596674E+00,  1.02587711E-02,  6.17248320E-05,
                      -9.01626371E-08,  3.59109635E-11,  1.16584983E+04,
                       1.20622371E+01]),
                NASA([946.05, 5000.00],
                     [ 1.24694578E+01,  1.00552417E-02, -2.41198204E-06,
                       4.57056641E-10, -3.93143316E-14,  8.01074272E+03,
                      -4.36379532E+01])))

species(name='IC4H9(273)',
        atoms='C:4 H:9',
        thermo=(NASA([100.00, 997.98],
                     [ 2.22523633E+00,  3.09740630E-02,  8.89423002E-06,
                      -2.91779564E-08,  1.23300113E-11,  6.87502977E+03,
                       1.63965614E+01]),
                NASA([997.98, 5000.00],
                     [ 8.64401075E+00,  2.40459966E-02, -8.94847131E-06,
                       1.61677967E-09, -1.12731558E-13,  4.65772022E+03,
                      -1.92475707E+01])))

species(name='C6H10(342)',
        atoms='C:6 H:10',
        thermo=(NASA([200.00, 1413.00],
                     [-1.01375000E+00,  6.38243000E-02, -4.40654000E-05,
                       1.58295000E-08, -2.30831000E-12,  7.94034000E+03,
                       3.25056000E+01]),
                NASA([1413.00, 5000.00],
                     [ 1.60456000E+01,  2.34774000E-02, -7.85798000E-06,
                       1.20201000E-09, -6.90100000E-14,  2.11899000E+03,
                      -5.88452000E+01])))

species(name='C6H9(343)',
        atoms='C:6 H:9',
        thermo=(NASA([200.00, 1400.00],
                     [-2.66715000E+00,  7.26196000E-02, -6.05324000E-05,
                       2.66001000E-08, -4.74613000E-12,  2.64415000E+04,
                       4.02220000E+01]),
                NASA([1400.00, 5000.00],
                     [ 1.70843000E+01,  2.08843000E-02, -7.14529000E-06,
                       1.10944000E-09, -6.43677000E-14,  2.01040000E+04,
                      -6.39326000E+01])))

species(name='C5H9(399)',
        atoms='C:5 H:9',
        thermo=(NASA([200.00, 1392.00],
                     [-8.41373000E-01,  5.27157000E-02, -3.27335000E-05,
                       1.01974000E-08, -1.26085000E-12,  1.04321000E+04,
                       2.93317000E+01]),
                NASA([1392.00, 5000.00],
                     [ 1.37918000E+01,  2.09645000E-02, -7.13793000E-06,
                       1.10481000E-09, -6.39628000E-14,  5.09556000E+03,
                      -5.01391000E+01])))

species(name='C5H9(400)',
        atoms='C:5 H:9',
        thermo=(NASA([200.00, 1393.00],
                     [-1.67398000E-01,  5.09877000E-02, -3.22616000E-05,
                       1.05912000E-08, -1.43705000E-12,  1.81793000E+04,
                       2.95711000E+01]),
                NASA([1393.00, 5000.00],
                     [ 1.35608000E+01,  2.07515000E-02, -7.06609000E-06,
                       1.09362000E-09, -6.33083000E-14,  1.31897000E+04,
                      -4.48719000E+01])))

species(name='C5H8(403)',
        atoms='C:5 H:8',
        thermo=(NASA([200.00, 1397.00],
                     [-4.72170000E-01,  5.59413000E-02, -4.50459000E-05,
                       1.96181000E-08, -3.52010000E-12,  7.14960000E+03,
                       2.56277000E+01]),
                NASA([1397.00, 5000.00],
                     [ 1.40758000E+01,  1.82376000E-02, -6.20748000E-06,
                       9.60351000E-10, -5.55742000E-14,  2.40034000E+03,
                      -5.12988000E+01])))

species(name='C5H7(404)',
        atoms='C:5 H:7',
        thermo=(NASA([200.00, 1393.00],
                     [-8.98037000E-01,  5.65174000E-02, -4.76108000E-05,
                       2.09672000E-08, -3.73076000E-12,  2.52882000E+04,
                       2.74967000E+01]),
                NASA([1393.00, 5000.00],
                     [ 1.48413000E+01,  1.52426000E-02, -5.13560000E-06,
                       7.89787000E-10, -4.55353000E-14,  2.02662000E+04,
                      -5.54475000E+01])))

species(name='C5H9(405)',
        atoms='C:5 H:9',
        thermo=(NASA([200.00, 1392.00],
                     [-6.91502000E-01,  5.09805000E-02, -2.96448000E-05,
                       8.28273000E-09, -8.57575000E-13,  1.07478000E+04,
                       2.76712000E+01]),
                NASA([1392.00, 5000.00],
                     [ 1.35250000E+01,  2.14364000E-02, -7.35304000E-06,
                       1.14369000E-09, -6.64364000E-14,  5.41382000E+03,
                      -5.00302000E+01])))

species(name='C5H9(407)',
        atoms='C:5 H:9',
        thermo=(NASA([200.00, 1393.00],
                     [-6.78910000E-01,  5.37496000E-02, -3.61117000E-05,
                       1.28563000E-08, -1.92156000E-12,  1.87974000E+04,
                       3.19298000E+01]),
                NASA([1393.00, 5000.00],
                     [ 1.38636000E+01,  2.06363000E-02, -7.05717000E-06,
                       1.09540000E-09, -6.35382000E-14,  1.36104000E+04,
                      -4.65612000E+01])))

species(name='C5H11(421)',
        atoms='C:5 H:11',
        thermo=(NASA([200.00, 1394.00],
                     [ 9.83190000E-02,  5.58654000E-02, -3.28856000E-05,
                       9.58367000E-09, -1.08641000E-12,  4.82066000E+03,
                       2.86921000E+01]),
                NASA([1394.00, 5000.00],
                     [ 1.51918000E+01,  2.40339000E-02, -8.19718000E-06,
                       1.27003000E-09, -7.35728000E-14, -8.02149000E+02,
                      -5.36479000E+01])))

species(name='C5H11(422)',
        atoms='C:5 H:11',
        thermo=(NASA([200.00, 1395.00],
                     [ 8.17689000E-01,  4.92654000E-02, -2.13786000E-05,
                       1.85532000E-09,  7.06259000E-13,  3.26221000E+03,
                       2.65876000E+01]),
                NASA([1395.00, 5000.00],
                     [ 1.47177000E+01,  2.41668000E-02, -8.18648000E-06,
                       1.26272000E-09, -7.29268000E-14, -2.26028000E+03,
                      -5.06071000E+01])))

species(name='C5H9(428)',
        atoms='C:5 H:9',
        thermo=(NASA([200.00, 1391.00],
                     [ 2.07677000E-01,  4.96049000E-02, -3.00622000E-05,
                       9.19962000E-09, -1.13246000E-12,  2.01252000E+04,
                       2.85856000E+01]),
                NASA([1391.00, 5000.00],
                     [ 1.37335000E+01,  2.07003000E-02, -7.06963000E-06,
                       1.09639000E-09, -6.35591000E-14,  1.51176000E+04,
                      -4.50795000E+01])))

species(name='C5H11(537)',
        atoms='C:5 H:11',
        thermo=(NASA([200.00, 1397.00],
                     [-1.05354000E+00,  6.19730000E-02, -4.24711000E-05,
                       1.55774000E-08, -2.40104000E-12,  4.23634000E+03,
                       3.31806000E+01]),
                NASA([1397.00, 5000.00],
                     [ 1.53440000E+01,  2.38466000E-02, -8.11897000E-06,
                       1.25635000E-09, -7.27147000E-14, -1.52768000E+03,
                      -5.50323000E+01])))

species(name='C5H11(540)',
        atoms='C:5 H:11',
        thermo=(NASA([200.00, 1397.00],
                     [-1.05354000E+00,  6.19730000E-02, -4.24711000E-05,
                       1.55774000E-08, -2.40104000E-12,  4.23634000E+03,
                       3.24911000E+01]),
                NASA([1397.00, 5000.00],
                     [ 1.53440000E+01,  2.38466000E-02, -8.11897000E-06,
                       1.25635000E-09, -7.27147000E-14, -1.52768000E+03,
                      -5.57218000E+01])))

species(name='C5H10(541)',
        atoms='C:5 H:10',
        thermo=(NASA([200.00, 1389.00],
                     [ 6.04883000E-01,  4.96635000E-02, -2.66571000E-05,
                       6.47312000E-09, -4.84018000E-13, -8.06312000E+03,
                       2.23818000E+01]),
                NASA([1389.00, 5000.00],
                     [ 1.40426000E+01,  2.27915000E-02, -7.74903000E-06,
                       1.19815000E-09, -6.93127000E-14, -1.32160000E+04,
                      -5.14470000E+01])))

species(name='C4H6(770)',
        atoms='C:4 H:6',
        thermo=(NASA([10.00, 678.86],
                     [ 4.17807000E+00, -1.32918000E-02,  1.33168000E-04,
                      -1.86932000E-07,  8.52597000E-11,  1.81566000E+04,
                       7.19711000E+00]),
                NASA([678.86, 3000.00],
                     [-1.61924000E+00,  3.92363000E-02, -2.34856000E-05,
                       6.76754000E-09, -7.52054000E-13,  1.85205000E+04,
                       2.98027000E+01])))

species(name='C4H5(774)',
        atoms='C:4 H:5',
        thermo=(NASA([10.00, 664.83],
                     [ 4.15683000E+00, -1.19787000E-02,  1.23800000E-04,
                      -1.78965000E-07,  8.39066000E-11,  4.80564000E+04,
                       8.47066000E+00]),
                NASA([664.83, 3000.00],
                     [-6.58247000E-01,  3.46079000E-02, -2.10565000E-05,
                       6.14847000E-09, -6.90398000E-13,  4.83073000E+04,
                       2.68070000E+01])))

species(name='C4H7(777)',
        atoms='C:4 H:7',
        thermo=(NASA([10.00, 441.02],
                     [ 3.96649000E+00,  2.08674000E-03,  1.09986000E-04,
                      -1.99422000E-07,  1.17293000E-10,  2.45062000E+04,
                       8.59493000E+00]),
                NASA([441.02, 3000.00],
                     [-4.30679000E-01,  4.21451000E-02, -2.68613000E-05,
                       8.35141000E-09, -1.00155000E-12,  2.48924000E+04,
                       2.61894000E+01])))

species(name='C4H5(781)',
        atoms='C:4 H:5',
        thermo=(NASA([10.00, 439.84],
                     [ 3.97370000E+00,  1.64622000E-03,  9.12128000E-05,
                      -1.65927000E-07,  9.75260000E-11,  4.43645000E+04,
                       8.07199000E+00]),
                NASA([439.84, 3000.00],
                     [ 2.77307000E-01,  3.52331000E-02, -2.32311000E-05,
                       7.38644000E-09, -8.98565000E-13,  4.46900000E+04,
                       2.28721000E+01])))

species(name='C4H5(793)',
        atoms='C:4 H:5',
        thermo=(NASA([10.00, 571.14],
                     [ 3.93958000E+00,  3.49162000E-03,  9.04859000E-05,
                      -1.65538000E-07,  9.29866000E-11,  5.15411000E+04,
                       8.08092000E+00]),
                NASA([571.14, 3000.00],
                     [ 1.80307000E+00,  3.21885000E-02, -2.09512000E-05,
                       6.64005000E-09, -8.09063000E-13,  5.15611000E+04,
                       1.52307000E+01])))

species(name='C3H4(801)',
        atoms='C:3 H:4',
        thermo=(NASA([100.00, 756.52],
                     [ 3.12442498E+00,  2.07345178E-02, -1.96571146E-05,
                       1.49091350E-08, -5.38061978E-12,  4.38597693E+04,
                       8.50628530E+00]),
                NASA([756.52, 5000.00],
                     [ 3.81496632E+00,  1.57057150E-02, -6.95465668E-06,
                       1.30829791E-09, -9.06465016E-14,  4.37947113E+04,
                       5.62805942E+00])))

#-------------------------------------------------------------------------------
# Reaction data
#-------------------------------------------------------------------------------
#  Reaction index: Chemkin #1; RMG #487
#  Library reaction: CurranPentane
#  Flux pairs: propane(1), CH3(14); propane(1), C2H5(37);

# Reaction 1
falloff_reaction('propane(1) (+ M) <=> CH3(14) + C2H5(37) (+ M)',
                 kf=[1.290000e+37, -5.84, 97.38],
                 kf0=[5.640000e+74, -15.74, 98.714],
                 efficiencies='C2H6(36):3.0 CH4(15):2.0 H2(6):2.0 He:0.7',
                 falloff=Troe(A=0.31, T3=50.0, T1=3000.0, T2=9000.0))
#  Reaction index: Chemkin #2; RMG #500
#  Library reaction: CurranPentane
#  Flux pairs: propane(1), IC3H7(93); CH3(14), CH4(15);

# Reaction 2
reaction('CH3(14) + propane(1) <=> CH4(15) + IC3H7(93)', [6.400000e+04, 2.17, 7.52])
#  Reaction index: Chemkin #3; RMG #501
#  Library reaction: CurranPentane
#  Flux pairs: propane(1), NC3H7(92); CH3(14), CH4(15);

# Reaction 3
reaction('CH3(14) + propane(1) <=> CH4(15) + NC3H7(92)', [9.040000e-01, 3.65, 7.154])
#  Reaction index: Chemkin #4; RMG #502
#  Library reaction: CurranPentane
#  Flux pairs: propane(1), propane(1); IC3H7(93), NC3H7(92);

# Reaction 4
reaction('IC3H7(93) + propane(1) <=> NC3H7(92) + propane(1)', [3.000000e+10, 0.0, 12.9])
#  Reaction index: Chemkin #5; RMG #4183
#  PDep reaction: PDepNetwork #32
#  Flux pairs: NC3H7(92), IC3H7(93);

# Reaction 5
chebyshev_reaction('NC3H7(92) (+ M) <=> IC3H7(93) (+ M)',
                   Tmin=500.0, Tmax=1000.0,
                   Pmin=(0.01, 'atm'), Pmax=(98.692, 'atm'),
                   coeffs=[[ 8.93400e-01,  1.85400e-01, -7.68300e-02,  1.58900e-02],
                           [ 4.09200e+00,  2.11700e-01, -7.17700e-02,  4.94900e-03],
                           [-4.32000e-02,  7.01200e-02, -1.42500e-02, -4.28100e-03],
                           [-1.32800e-02,  1.56500e-02,  2.04400e-04, -2.21000e-03],
                           [-2.87600e-03,  2.29800e-03,  9.75200e-04, -3.91600e-04],
                           [-4.61200e-04,  8.70700e-05,  3.24400e-04,  3.56800e-05]])
#  Reaction index: Chemkin #6; RMG #183
#  Library reaction: CurranPentane
#  Flux pairs: C2H5(37), C2H4(38); CH3(14), CH4(15);

# Reaction 6
reaction('CH3(14) + C2H5(37) <=> CH4(15) + C2H4(38)', [1.180000e+04, 2.45, -2.921])
#  Reaction index: Chemkin #7; RMG #630
#  Library reaction: CurranPentane

# Reaction 7
pdep_arrhenius('CH3(14) + C2H4(38) <=> NC3H7(92)',
               [(0.0013, 'atm'), 8.670000e+48, -12.54, 18.206],
               [(0.04, 'atm'), 1.060000e+49, -12.04, 20.001],
               [(1.0, 'atm'), 7.670000e+47, -11.17, 22.366],
               [(10.0, 'atm'), 1.810000e+45, -10.03, 23.769],
               [(100.0, 'atm'), 2.040000e+40, -8.25, 24.214],
               options='duplicate')
#  Reaction index: Chemkin #8; RMG #630
#  Library reaction: CurranPentane

# Reaction 8
pdep_arrhenius('CH3(14) + C2H4(38) <=> NC3H7(92)',